/*--------------------------------*- C++ -*----------------------------------*\
  =========                 |
  \\      /  F ield         | OpenFOAM: The Open Source CFD Toolbox
   \\    /   O peration     | Website:  https://openfoam.org
    \\  /    A nd           | Version:  6
     \\/     M anipulation  |
\*---------------------------------------------------------------------------*/
FoamFile
{
    version     2.0;
    format      ascii;
    class       volScalarField;
    object      p;
}
// * * * * * * * * * * * * * * * * * * * * * * * * * * * * * * * * * * * * * //

dimensions      [0 2 -2 0 0 0 0];

internalField   uniform 0;

boundaryField
{
    top
    {
	type		zeroGradient;
    }
    walls
    {
	type		zeroGradient;
    }
    bot
    {
	type		zeroGradient;
    }
    impeller
    {
	type		zeroGradient;
    }
    MRF_top_src
    {
	type		cyclicAMI;
	value		$internalField;
    }
    MRF_walls_src
    {
	type		cyclicAMI;
	value		$internalField;
    }
    MRF_bot_src
    {
	type		cyclicAMI;
	value		$internalField;
    }
    MRF_top_tgt
    {
	type		cyclicAMI;
	value		$internalField;
    }
    MRF_walls_tgt
    {
	type		cyclicAMI;
	value		$internalField;
    }
    MRF_bot_tgt
    {
	type		cyclicAMI;
	value		$internalField;
    }
}

// ************************************************************************* //
