/*--------------------------------*- C++ -*----------------------------------*\
  =========                 |
  \\      /  F ield         | OpenFOAM: The Open Source CFD Toolbox
   \\    /   O peration     | Website:  https://openfoam.org
    \\  /    A nd           | Version:  8
     \\/     M anipulation  |
\*---------------------------------------------------------------------------*/
FoamFile
{
    version     2.0;
    format      binary;
    class       polyBoundaryMesh;
    location    "constant/polyMesh";
    object      boundary;
}
// * * * * * * * * * * * * * * * * * * * * * * * * * * * * * * * * * * * * * //

4
(
    walls
    {
        type            patch;
        physicalType    patch;
        nFaces          49678;
        startFace       2511811;
    }
    top
    {
        type            patch;
        physicalType    patch;
        nFaces          6166;
        startFace       2561489;
    }
    bot
    {
        type            patch;
        physicalType    patch;
        nFaces          6172;
        startFace       2567655;
    }
    stirrer
    {
        type            patch;
        physicalType    patch;
        nFaces          12518;
        startFace       2573827;
    }
)

// ************************************************************************* //
