/*--------------------------------*- C++ -*----------------------------------*\
  =========                 |
  \\      /  F ield         | OpenFOAM: The Open Source CFD Toolbox
   \\    /   O peration     | Website:  https://openfoam.org
    \\  /    A nd           | Version:  8
     \\/     M anipulation  |
\*---------------------------------------------------------------------------*/
FoamFile
{
    version     2.0;
    format      ascii;
    class       dictionary;
    location    "system";
    object      setFieldsDict;
}
// * * * * * * * * * * * * * * * * * * * * * * * * * * * * * * * * * * * * * //

defaultFieldValues
(
    volScalarFieldValue alpha.water 1
    volScalarFieldValue alpha.particles 0
);

regions
(
    boxToCell
    {
        box (-0.015 -0.015 0.00) (0.015 0.015 0.031);
        fieldValues
        (
            volScalarFieldValue alpha.water 0.93
            volScalarFieldValue alpha.particles 0.07
        );
    }
);


// ************************************************************************* //
